.subckt gain_block IN OUT COM
EGAIN OUT COM IN COM 2
.ends gain_block
